
---------- Begin Simulation Statistics ----------
simSeconds                                   0.029959                       # Number of seconds simulated (Second)
simTicks                                  29959334000                       # Number of ticks simulated (Tick)
finalTick                                 29959334000                       # Number of ticks from beginning of simulation (restored from checkpoints and never reset) (Tick)
simFreq                                  1000000000000                       # The number of ticks per simulated second ((Tick/Second))
hostSeconds                                    431.19                       # Real time elapsed on the host (Second)
hostTickRate                                 69481337                       # The number of ticks simulated per host second (ticks/s) ((Tick/Second))
hostMemory                                     796660                       # Number of bytes of host memory used (Byte)
simInsts                                    104693735                       # Number of instructions simulated (Count)
simOps                                      190503147                       # Number of ops (including micro ops) simulated (Count)
hostInstRate                                   242804                       # Simulator instruction rate (inst/s) ((Count/Second))
hostOpRate                                     441813                       # Simulator op (including micro ops) rate (op/s) ((Count/Second))
system.clk_domain.clock                          1000                       # Clock period in ticks (Tick)
system.cpu0.numCycles                         3153142                       # Number of cpu cycles simulated (Cycle)
system.cpu0.numWorkItemsStarted                     0                       # Number of work items this cpu started (Count)
system.cpu0.numWorkItemsCompleted                   0                       # Number of work items this cpu completed (Count)
system.cpu0.instsAdded                       11864146                       # Number of instructions added to the IQ (excludes non-spec) (Count)
system.cpu0.nonSpecInstsAdded                     302                       # Number of non-speculative instructions added to the IQ (Count)
system.cpu0.instsIssued                      11853946                       # Number of instructions issued (Count)
system.cpu0.squashedInstsIssued                   213                       # Number of squashed instructions issued (Count)
system.cpu0.squashedInstsExamined              115320                       # Number of squashed instructions iterated over during squash; mainly for profiling (Count)
system.cpu0.squashedOperandsExamined           103658                       # Number of squashed operands that are examined and possibly removed from graph (Count)
system.cpu0.squashedNonSpecRemoved                146                       # Number of squashed non-spec instructions that were removed (Count)
system.cpu0.numIssuedDist::samples            3110446                       # Number of insts issued each cycle
system.cpu0.numIssuedDist::mean              3.811012                       # Number of insts issued each cycle
system.cpu0.numIssuedDist::stdev             2.185035                       # Number of insts issued each cycle
system.cpu0.numIssuedDist::underflows               0      0.00%      0.00% # Number of insts issued each cycle
system.cpu0.numIssuedDist::0                   232150      7.46%      7.46% # Number of insts issued each cycle
system.cpu0.numIssuedDist::1                   318652     10.24%     17.71% # Number of insts issued each cycle
system.cpu0.numIssuedDist::2                   333940     10.74%     28.44% # Number of insts issued each cycle
system.cpu0.numIssuedDist::3                   562999     18.10%     46.54% # Number of insts issued each cycle
system.cpu0.numIssuedDist::4                   416531     13.39%     59.94% # Number of insts issued each cycle
system.cpu0.numIssuedDist::5                   490959     15.78%     75.72% # Number of insts issued each cycle
system.cpu0.numIssuedDist::6                   397831     12.79%     88.51% # Number of insts issued each cycle
system.cpu0.numIssuedDist::7                   188560      6.06%     94.57% # Number of insts issued each cycle
system.cpu0.numIssuedDist::8                   168824      5.43%    100.00% # Number of insts issued each cycle
system.cpu0.numIssuedDist::overflows                0      0.00%    100.00% # Number of insts issued each cycle
system.cpu0.numIssuedDist::min_value                0                       # Number of insts issued each cycle
system.cpu0.numIssuedDist::max_value                8                       # Number of insts issued each cycle
system.cpu0.numIssuedDist::total              3110446                       # Number of insts issued each cycle
system.cpu0.statFuBusy::No_OpClass                  0      0.00%      0.00% # attempts to use FU when none available (Count)
system.cpu0.statFuBusy::IntAlu                  94303     89.34%     89.34% # attempts to use FU when none available (Count)
system.cpu0.statFuBusy::IntMult                     0      0.00%     89.34% # attempts to use FU when none available (Count)
system.cpu0.statFuBusy::IntDiv                      0      0.00%     89.34% # attempts to use FU when none available (Count)
system.cpu0.statFuBusy::FloatAdd                    0      0.00%     89.34% # attempts to use FU when none available (Count)
system.cpu0.statFuBusy::FloatCmp                    0      0.00%     89.34% # attempts to use FU when none available (Count)
system.cpu0.statFuBusy::FloatCvt                    0      0.00%     89.34% # attempts to use FU when none available (Count)
system.cpu0.statFuBusy::FloatMult                   0      0.00%     89.34% # attempts to use FU when none available (Count)
system.cpu0.statFuBusy::FloatMultAcc                0      0.00%     89.34% # attempts to use FU when none available (Count)
system.cpu0.statFuBusy::FloatDiv                    0      0.00%     89.34% # attempts to use FU when none available (Count)
system.cpu0.statFuBusy::FloatMisc                   0      0.00%     89.34% # attempts to use FU when none available (Count)
system.cpu0.statFuBusy::FloatSqrt                   0      0.00%     89.34% # attempts to use FU when none available (Count)
system.cpu0.statFuBusy::SimdAdd                     0      0.00%     89.34% # attempts to use FU when none available (Count)
system.cpu0.statFuBusy::SimdAddAcc                  0      0.00%     89.34% # attempts to use FU when none available (Count)
system.cpu0.statFuBusy::SimdAlu                    11      0.01%     89.35% # attempts to use FU when none available (Count)
system.cpu0.statFuBusy::SimdCmp                     0      0.00%     89.35% # attempts to use FU when none available (Count)
system.cpu0.statFuBusy::SimdCvt                     3      0.00%     89.35% # attempts to use FU when none available (Count)
system.cpu0.statFuBusy::SimdMisc                    0      0.00%     89.35% # attempts to use FU when none available (Count)
system.cpu0.statFuBusy::SimdMult                    0      0.00%     89.35% # attempts to use FU when none available (Count)
system.cpu0.statFuBusy::SimdMultAcc                 0      0.00%     89.35% # attempts to use FU when none available (Count)
system.cpu0.statFuBusy::SimdShift                   0      0.00%     89.35% # attempts to use FU when none available (Count)
system.cpu0.statFuBusy::SimdShiftAcc                0      0.00%     89.35% # attempts to use FU when none available (Count)
system.cpu0.statFuBusy::SimdDiv                     0      0.00%     89.35% # attempts to use FU when none available (Count)
system.cpu0.statFuBusy::SimdSqrt                    0      0.00%     89.35% # attempts to use FU when none available (Count)
system.cpu0.statFuBusy::SimdFloatAdd                0      0.00%     89.35% # attempts to use FU when none available (Count)
system.cpu0.statFuBusy::SimdFloatAlu                0      0.00%     89.35% # attempts to use FU when none available (Count)
system.cpu0.statFuBusy::SimdFloatCmp                0      0.00%     89.35% # attempts to use FU when none available (Count)
system.cpu0.statFuBusy::SimdFloatCvt                0      0.00%     89.35% # attempts to use FU when none available (Count)
system.cpu0.statFuBusy::SimdFloatDiv                0      0.00%     89.35% # attempts to use FU when none available (Count)
system.cpu0.statFuBusy::SimdFloatMisc               0      0.00%     89.35% # attempts to use FU when none available (Count)
system.cpu0.statFuBusy::SimdFloatMult               0      0.00%     89.35% # attempts to use FU when none available (Count)
system.cpu0.statFuBusy::SimdFloatMultAcc            0      0.00%     89.35% # attempts to use FU when none available (Count)
system.cpu0.statFuBusy::SimdFloatSqrt               0      0.00%     89.35% # attempts to use FU when none available (Count)
system.cpu0.statFuBusy::SimdReduceAdd               0      0.00%     89.35% # attempts to use FU when none available (Count)
system.cpu0.statFuBusy::SimdReduceAlu               0      0.00%     89.35% # attempts to use FU when none available (Count)
system.cpu0.statFuBusy::SimdReduceCmp               0      0.00%     89.35% # attempts to use FU when none available (Count)
system.cpu0.statFuBusy::SimdFloatReduceAdd            0      0.00%     89.35% # attempts to use FU when none available (Count)
system.cpu0.statFuBusy::SimdFloatReduceCmp            0      0.00%     89.35% # attempts to use FU when none available (Count)
system.cpu0.statFuBusy::SimdAes                     0      0.00%     89.35% # attempts to use FU when none available (Count)
system.cpu0.statFuBusy::SimdAesMix                  0      0.00%     89.35% # attempts to use FU when none available (Count)
system.cpu0.statFuBusy::SimdSha1Hash                0      0.00%     89.35% # attempts to use FU when none available (Count)
system.cpu0.statFuBusy::SimdSha1Hash2               0      0.00%     89.35% # attempts to use FU when none available (Count)
system.cpu0.statFuBusy::SimdSha256Hash              0      0.00%     89.35% # attempts to use FU when none available (Count)
system.cpu0.statFuBusy::SimdSha256Hash2             0      0.00%     89.35% # attempts to use FU when none available (Count)
system.cpu0.statFuBusy::SimdShaSigma2               0      0.00%     89.35% # attempts to use FU when none available (Count)
system.cpu0.statFuBusy::SimdShaSigma3               0      0.00%     89.35% # attempts to use FU when none available (Count)
system.cpu0.statFuBusy::SimdPredAlu                 0      0.00%     89.35% # attempts to use FU when none available (Count)
system.cpu0.statFuBusy::MemRead                  1079      1.02%     90.37% # attempts to use FU when none available (Count)
system.cpu0.statFuBusy::MemWrite                   79      0.07%     90.45% # attempts to use FU when none available (Count)
system.cpu0.statFuBusy::FloatMemRead            10018      9.49%     99.94% # attempts to use FU when none available (Count)
system.cpu0.statFuBusy::FloatMemWrite              63      0.06%    100.00% # attempts to use FU when none available (Count)
system.cpu0.statFuBusy::IprAccess                   0      0.00%    100.00% # attempts to use FU when none available (Count)
system.cpu0.statFuBusy::InstPrefetch                0      0.00%    100.00% # attempts to use FU when none available (Count)
system.cpu0.statIssuedInstType_0::No_OpClass        62226      0.52%      0.52% # Number of instructions issued per FU type, per thread (Count)
system.cpu0.statIssuedInstType_0::IntAlu      9050448     76.35%     76.87% # Number of instructions issued per FU type, per thread (Count)
system.cpu0.statIssuedInstType_0::IntMult        19067      0.16%     77.04% # Number of instructions issued per FU type, per thread (Count)
system.cpu0.statIssuedInstType_0::IntDiv           36      0.00%     77.04% # Number of instructions issued per FU type, per thread (Count)
system.cpu0.statIssuedInstType_0::FloatAdd        20193      0.17%     77.21% # Number of instructions issued per FU type, per thread (Count)
system.cpu0.statIssuedInstType_0::FloatCmp            0      0.00%     77.21% # Number of instructions issued per FU type, per thread (Count)
system.cpu0.statIssuedInstType_0::FloatCvt            0      0.00%     77.21% # Number of instructions issued per FU type, per thread (Count)
system.cpu0.statIssuedInstType_0::FloatMult            0      0.00%     77.21% # Number of instructions issued per FU type, per thread (Count)
system.cpu0.statIssuedInstType_0::FloatMultAcc            0      0.00%     77.21% # Number of instructions issued per FU type, per thread (Count)
system.cpu0.statIssuedInstType_0::FloatDiv            0      0.00%     77.21% # Number of instructions issued per FU type, per thread (Count)
system.cpu0.statIssuedInstType_0::FloatMisc            0      0.00%     77.21% # Number of instructions issued per FU type, per thread (Count)
system.cpu0.statIssuedInstType_0::FloatSqrt            0      0.00%     77.21% # Number of instructions issued per FU type, per thread (Count)
system.cpu0.statIssuedInstType_0::SimdAdd            0      0.00%     77.21% # Number of instructions issued per FU type, per thread (Count)
system.cpu0.statIssuedInstType_0::SimdAddAcc            0      0.00%     77.21% # Number of instructions issued per FU type, per thread (Count)
system.cpu0.statIssuedInstType_0::SimdAlu          181      0.00%     77.21% # Number of instructions issued per FU type, per thread (Count)
system.cpu0.statIssuedInstType_0::SimdCmp            0      0.00%     77.21% # Number of instructions issued per FU type, per thread (Count)
system.cpu0.statIssuedInstType_0::SimdCvt           52      0.00%     77.21% # Number of instructions issued per FU type, per thread (Count)
system.cpu0.statIssuedInstType_0::SimdMisc        10276      0.09%     77.29% # Number of instructions issued per FU type, per thread (Count)
system.cpu0.statIssuedInstType_0::SimdMult            0      0.00%     77.29% # Number of instructions issued per FU type, per thread (Count)
system.cpu0.statIssuedInstType_0::SimdMultAcc            0      0.00%     77.29% # Number of instructions issued per FU type, per thread (Count)
system.cpu0.statIssuedInstType_0::SimdShift            0      0.00%     77.29% # Number of instructions issued per FU type, per thread (Count)
system.cpu0.statIssuedInstType_0::SimdShiftAcc            0      0.00%     77.29% # Number of instructions issued per FU type, per thread (Count)
system.cpu0.statIssuedInstType_0::SimdDiv            0      0.00%     77.29% # Number of instructions issued per FU type, per thread (Count)
system.cpu0.statIssuedInstType_0::SimdSqrt            0      0.00%     77.29% # Number of instructions issued per FU type, per thread (Count)
system.cpu0.statIssuedInstType_0::SimdFloatAdd            0      0.00%     77.29% # Number of instructions issued per FU type, per thread (Count)
system.cpu0.statIssuedInstType_0::SimdFloatAlu            0      0.00%     77.29% # Number of instructions issued per FU type, per thread (Count)
system.cpu0.statIssuedInstType_0::SimdFloatCmp            0      0.00%     77.29% # Number of instructions issued per FU type, per thread (Count)
system.cpu0.statIssuedInstType_0::SimdFloatCvt            0      0.00%     77.29% # Number of instructions issued per FU type, per thread (Count)
system.cpu0.statIssuedInstType_0::SimdFloatDiv            0      0.00%     77.29% # Number of instructions issued per FU type, per thread (Count)
system.cpu0.statIssuedInstType_0::SimdFloatMisc            0      0.00%     77.29% # Number of instructions issued per FU type, per thread (Count)
system.cpu0.statIssuedInstType_0::SimdFloatMult            0      0.00%     77.29% # Number of instructions issued per FU type, per thread (Count)
system.cpu0.statIssuedInstType_0::SimdFloatMultAcc            0      0.00%     77.29% # Number of instructions issued per FU type, per thread (Count)
system.cpu0.statIssuedInstType_0::SimdFloatSqrt            0      0.00%     77.29% # Number of instructions issued per FU type, per thread (Count)
system.cpu0.statIssuedInstType_0::SimdReduceAdd            0      0.00%     77.29% # Number of instructions issued per FU type, per thread (Count)
system.cpu0.statIssuedInstType_0::SimdReduceAlu            0      0.00%     77.29% # Number of instructions issued per FU type, per thread (Count)
system.cpu0.statIssuedInstType_0::SimdReduceCmp            0      0.00%     77.29% # Number of instructions issued per FU type, per thread (Count)
system.cpu0.statIssuedInstType_0::SimdFloatReduceAdd            0      0.00%     77.29% # Number of instructions issued per FU type, per thread (Count)
system.cpu0.statIssuedInstType_0::SimdFloatReduceCmp            0      0.00%     77.29% # Number of instructions issued per FU type, per thread (Count)
system.cpu0.statIssuedInstType_0::SimdAes            0      0.00%     77.29% # Number of instructions issued per FU type, per thread (Count)
system.cpu0.statIssuedInstType_0::SimdAesMix            0      0.00%     77.29% # Number of instructions issued per FU type, per thread (Count)
system.cpu0.statIssuedInstType_0::SimdSha1Hash            0      0.00%     77.29% # Number of instructions issued per FU type, per thread (Count)
system.cpu0.statIssuedInstType_0::SimdSha1Hash2            0      0.00%     77.29% # Number of instructions issued per FU type, per thread (Count)
system.cpu0.statIssuedInstType_0::SimdSha256Hash            0      0.00%     77.29% # Number of instructions issued per FU type, per thread (Count)
system.cpu0.statIssuedInstType_0::SimdSha256Hash2            0      0.00%     77.29% # Number of instructions issued per FU type, per thread (Count)
system.cpu0.statIssuedInstType_0::SimdShaSigma2            0      0.00%     77.29% # Number of instructions issued per FU type, per thread (Count)
system.cpu0.statIssuedInstType_0::SimdShaSigma3            0      0.00%     77.29% # Number of instructions issued per FU type, per thread (Count)
system.cpu0.statIssuedInstType_0::SimdPredAlu            0      0.00%     77.29% # Number of instructions issued per FU type, per thread (Count)
system.cpu0.statIssuedInstType_0::MemRead      1523909     12.86%     90.15% # Number of instructions issued per FU type, per thread (Count)
system.cpu0.statIssuedInstType_0::MemWrite      1066366      9.00%     99.15% # Number of instructions issued per FU type, per thread (Count)
system.cpu0.statIssuedInstType_0::FloatMemRead        40233      0.34%     99.49% # Number of instructions issued per FU type, per thread (Count)
system.cpu0.statIssuedInstType_0::FloatMemWrite        60959      0.51%    100.00% # Number of instructions issued per FU type, per thread (Count)
system.cpu0.statIssuedInstType_0::IprAccess            0      0.00%    100.00% # Number of instructions issued per FU type, per thread (Count)
system.cpu0.statIssuedInstType_0::InstPrefetch            0      0.00%    100.00% # Number of instructions issued per FU type, per thread (Count)
system.cpu0.statIssuedInstType_0::total      11853946                       # Number of instructions issued per FU type, per thread (Count)
system.cpu0.issueRate                        3.759408                       # Inst issue rate ((Count/Cycle))
system.cpu0.fuBusy                             105556                       # FU busy when requested (Count)
system.cpu0.fuBusyRate                       0.008905                       # FU busy rate (busy events/executed inst) ((Count/Count))
system.cpu0.intInstQueueReads                26629876                       # Number of integer instruction queue reads (Count)
system.cpu0.intInstQueueWrites               11847166                       # Number of integer instruction queue writes (Count)
system.cpu0.intInstQueueWakeupAccesses       11697979                       # Number of integer instruction queue wakeup accesses (Count)
system.cpu0.fpInstQueueReads                   294231                       # Number of floating instruction queue reads (Count)
system.cpu0.fpInstQueueWrites                  132700                       # Number of floating instruction queue writes (Count)
system.cpu0.fpInstQueueWakeupAccesses          131974                       # Number of floating instruction queue wakeup accesses (Count)
system.cpu0.vecInstQueueReads                       0                       # Number of vector instruction queue reads (Count)
system.cpu0.vecInstQueueWrites                      0                       # Number of vector instruction queue writes (Count)
system.cpu0.vecInstQueueWakeupAccesses              0                       # Number of vector instruction queue wakeup accesses (Count)
system.cpu0.intAluAccesses                   11745120                       # Number of integer alu accesses (Count)
system.cpu0.fpAluAccesses                      152156                       # Number of floating point alu accesses (Count)
system.cpu0.vecAluAccesses                          0                       # Number of vector alu accesses (Count)
system.cpu0.idleCycles                              0                       # Number of cycles IEW is idle (Cycle)
system.cpu0.squashCycles                         4986                       # Number of cycles IEW is squashing (Cycle)
system.cpu0.blockCycles                         17567                       # Number of cycles IEW is blocking (Cycle)
system.cpu0.unblockCycles                        1620                       # Number of cycles IEW is unblocking (Cycle)
system.cpu0.dispatchedInsts                  11864448                       # Number of instructions dispatched to IQ (Count)
system.cpu0.dispSquashedInsts                     159                       # Number of squashed instructions skipped by dispatch (Count)
system.cpu0.dispLoadInsts                     1555062                       # Number of dispatched load instructions (Count)
system.cpu0.dispStoreInsts                    1129090                       # Number of dispatched store instructions (Count)
system.cpu0.dispNonSpecInsts                      102                       # Number of dispatched non-speculative instructions (Count)
system.cpu0.iqFullEvents                          116                       # Number of times the IQ has become full, causing a stall (Count)
system.cpu0.lsqFullEvents                        1490                       # Number of times the LSQ has become full, causing a stall (Count)
system.cpu0.memOrderViolationEvents               101                       # Number of memory order violations (Count)
system.cpu0.predictedTakenIncorrect              1874                       # Number of branches that were predicted taken incorrectly (Count)
system.cpu0.predictedNotTakenIncorrect           4101                       # Number of branches that were predicted not taken incorrectly (Count)
system.cpu0.branchMispredicts                    5975                       # Number of branch mispredicts detected at execute (Count)
system.cpu0.numInsts                         11841723                       # Number of executed instructions (Count)
system.cpu0.numLoadInsts                      1563071                       # Number of load instructions executed (Count)
system.cpu0.numSquashedInsts                    12223                       # Number of squashed instructions skipped in execute (Count)
system.cpu0.numSwp                                  0                       # Number of swp insts executed (Count)
system.cpu0.numNop                                  0                       # Number of nop insts executed (Count)
system.cpu0.numRefs                           2689165                       # Number of memory reference insts executed (Count)
system.cpu0.numBranches                       1370019                       # Number of branches executed (Count)
system.cpu0.numStoreInsts                     1126094                       # Number of stores executed (Count)
system.cpu0.numRate                          3.755531                       # Inst execution rate ((Count/Cycle))
system.cpu0.instsToCommit                    11830748                       # Cumulative count of insts sent to commit (Count)
system.cpu0.writebackCount                   11829953                       # Cumulative count of insts written-back (Count)
system.cpu0.producerInst                      8225904                       # Number of instructions producing a value (Count)
system.cpu0.consumerInst                     12549429                       # Number of instructions consuming a value (Count)
system.cpu0.wbRate                           3.751798                       # Insts written-back per cycle ((Count/Cycle))
system.cpu0.wbFanout                         0.655480                       # Average fanout of values written-back ((Count/Count))
system.cpu0.timesIdled                            508                       # Number of times that the entire CPU went into an idle state and unscheduled itself (Count)
system.cpu0.idleCycles                          42696                       # Total number of cycles that the CPU has spent unscheduled due to idling (Cycle)
system.cpu0.quiesceCycles                    56765527                       # Total number of cycles that CPU has spent quiesced or waiting for an interrupt (Cycle)
system.cpu0.committedInsts                    6402026                       # Number of Instructions Simulated (Count)
system.cpu0.committedOps                     11749122                       # Number of Ops (including micro ops) Simulated (Count)
system.cpu0.cpi                              0.492523                       # CPI: Cycles Per Instruction ((Cycle/Count))
system.cpu0.totalCpi                         0.492523                       # CPI: Total CPI of All Threads ((Cycle/Count))
system.cpu0.ipc                              2.030364                       # IPC: Instructions Per Cycle ((Count/Cycle))
system.cpu0.totalIpc                         2.030364                       # IPC: Total IPC of All Threads ((Count/Cycle))
system.cpu0.intRegfileReads                  17836576                       # Number of integer regfile reads (Count)
system.cpu0.intRegfileWrites                  9221328                       # Number of integer regfile writes (Count)
system.cpu0.fpRegfileReads                      92204                       # Number of floating regfile reads (Count)
system.cpu0.fpRegfileWrites                     71009                       # Number of floating regfile writes (Count)
system.cpu0.ccRegfileReads                    6852746                       # number of cc regfile reads (Count)
system.cpu0.ccRegfileWrites                   3490236                       # number of cc regfile writes (Count)
system.cpu0.miscRegfileReads                  5424379                       # number of misc regfile reads (Count)
system.cpu0.MemDepUnit__0.insertedLoads       1555062                       # Number of loads inserted to the mem dependence unit. (Count)
system.cpu0.MemDepUnit__0.insertedStores      1129090                       # Number of stores inserted to the mem dependence unit. (Count)
system.cpu0.MemDepUnit__0.conflictingLoads        48668                       # Number of conflicting loads. (Count)
system.cpu0.MemDepUnit__0.conflictingStores        58101                       # Number of conflicting stores. (Count)
system.cpu0.MemDepUnit__1.insertedLoads             0                       # Number of loads inserted to the mem dependence unit. (Count)
system.cpu0.MemDepUnit__1.insertedStores            0                       # Number of stores inserted to the mem dependence unit. (Count)
system.cpu0.MemDepUnit__1.conflictingLoads            0                       # Number of conflicting loads. (Count)
system.cpu0.MemDepUnit__1.conflictingStores            0                       # Number of conflicting stores. (Count)
system.cpu0.MemDepUnit__2.insertedLoads             0                       # Number of loads inserted to the mem dependence unit. (Count)
system.cpu0.MemDepUnit__2.insertedStores            0                       # Number of stores inserted to the mem dependence unit. (Count)
system.cpu0.MemDepUnit__2.conflictingLoads            0                       # Number of conflicting loads. (Count)
system.cpu0.MemDepUnit__2.conflictingStores            0                       # Number of conflicting stores. (Count)
system.cpu0.MemDepUnit__3.insertedLoads             0                       # Number of loads inserted to the mem dependence unit. (Count)
system.cpu0.MemDepUnit__3.insertedStores            0                       # Number of stores inserted to the mem dependence unit. (Count)
system.cpu0.MemDepUnit__3.conflictingLoads            0                       # Number of conflicting loads. (Count)
system.cpu0.MemDepUnit__3.conflictingStores            0                       # Number of conflicting stores. (Count)
system.cpu0.branchPred.lookups                1386617                       # Number of BP lookups (Count)
system.cpu0.branchPred.condPredicted          1152543                       # Number of conditional branches predicted (Count)
system.cpu0.branchPred.condIncorrect             5155                       # Number of conditional branches incorrect (Count)
system.cpu0.branchPred.BTBLookups              609323                       # Number of BTB lookups (Count)
system.cpu0.branchPred.BTBHits                 607970                       # Number of BTB hits (Count)
system.cpu0.branchPred.BTBHitRatio           0.997780                       # BTB Hit Ratio (Ratio)
system.cpu0.branchPred.RASUsed                  50745                       # Number of times the RAS was used to get a target. (Count)
system.cpu0.branchPred.RASIncorrect                 2                       # Number of incorrect RAS predictions. (Count)
system.cpu0.branchPred.indirectLookups          20485                       # Number of indirect predictor lookups. (Count)
system.cpu0.branchPred.indirectHits             20015                       # Number of indirect target hits. (Count)
system.cpu0.branchPred.indirectMisses             470                       # Number of indirect misses. (Count)
system.cpu0.branchPred.indirectMispredicted          130                       # Number of mispredicted indirect branches. (Count)
system.cpu0.commit.commitSquashedInsts         114788                       # The number of squashed insts skipped by commit (Count)
system.cpu0.commit.commitNonSpecStalls            156                       # The number of times commit has been forced to stall to communicate backwards (Count)
system.cpu0.commit.branchMispredicts             4857                       # The number of times a branch was mispredicted (Count)
system.cpu0.commit.numCommittedDist::samples      3093158                       # Number of insts commited each cycle
system.cpu0.commit.numCommittedDist::mean     3.798423                       # Number of insts commited each cycle
system.cpu0.commit.numCommittedDist::stdev     2.923717                       # Number of insts commited each cycle
system.cpu0.commit.numCommittedDist::underflows            0      0.00%      0.00% # Number of insts commited each cycle
system.cpu0.commit.numCommittedDist::0         447018     14.45%     14.45% # Number of insts commited each cycle
system.cpu0.commit.numCommittedDist::1         553283     17.89%     32.34% # Number of insts commited each cycle
system.cpu0.commit.numCommittedDist::2         200872      6.49%     38.83% # Number of insts commited each cycle
system.cpu0.commit.numCommittedDist::3         516853     16.71%     55.54% # Number of insts commited each cycle
system.cpu0.commit.numCommittedDist::4         142000      4.59%     60.13% # Number of insts commited each cycle
system.cpu0.commit.numCommittedDist::5         219807      7.11%     67.24% # Number of insts commited each cycle
system.cpu0.commit.numCommittedDist::6         195941      6.33%     73.57% # Number of insts commited each cycle
system.cpu0.commit.numCommittedDist::7         138217      4.47%     78.04% # Number of insts commited each cycle
system.cpu0.commit.numCommittedDist::8         679167     21.96%    100.00% # Number of insts commited each cycle
system.cpu0.commit.numCommittedDist::overflows            0      0.00%    100.00% # Number of insts commited each cycle
system.cpu0.commit.numCommittedDist::min_value            0                       # Number of insts commited each cycle
system.cpu0.commit.numCommittedDist::max_value            8                       # Number of insts commited each cycle
system.cpu0.commit.numCommittedDist::total      3093158                       # Number of insts commited each cycle
system.cpu0.commit.instsCommitted             6402026                       # Number of instructions committed (Count)
system.cpu0.commit.opsCommitted              11749122                       # Number of ops (including micro ops) committed (Count)
system.cpu0.commit.memRefs                    2666809                       # Number of memory references committed (Count)
system.cpu0.commit.loads                      1546805                       # Number of loads committed (Count)
system.cpu0.commit.amos                             0                       # Number of atomic instructions committed (Count)
system.cpu0.commit.membars                        104                       # Number of memory barriers committed (Count)
system.cpu0.commit.branches                   1361317                       # Number of branches committed (Count)
system.cpu0.commit.vectorInstructions               0                       # Number of committed Vector instructions. (Count)
system.cpu0.commit.floating                    131642                       # Number of committed floating point instructions. (Count)
system.cpu0.commit.integer                   11657919                       # Number of committed integer instructions. (Count)
system.cpu0.commit.functionCalls                50246                       # Number of function calls committed. (Count)
system.cpu0.commit.committedInstType_0::No_OpClass        60525      0.52%      0.52% # Class of committed instruction (Count)
system.cpu0.commit.committedInstType_0::IntAlu      8972130     76.36%     76.88% # Class of committed instruction (Count)
system.cpu0.commit.committedInstType_0::IntMult        19052      0.16%     77.04% # Class of committed instruction (Count)
system.cpu0.commit.committedInstType_0::IntDiv           28      0.00%     77.04% # Class of committed instruction (Count)
system.cpu0.commit.committedInstType_0::FloatAdd        20158      0.17%     77.21% # Class of committed instruction (Count)
system.cpu0.commit.committedInstType_0::FloatCmp            0      0.00%     77.21% # Class of committed instruction (Count)
system.cpu0.commit.committedInstType_0::FloatCvt            0      0.00%     77.21% # Class of committed instruction (Count)
system.cpu0.commit.committedInstType_0::FloatMult            0      0.00%     77.21% # Class of committed instruction (Count)
system.cpu0.commit.committedInstType_0::FloatMultAcc            0      0.00%     77.21% # Class of committed instruction (Count)
system.cpu0.commit.committedInstType_0::FloatDiv            0      0.00%     77.21% # Class of committed instruction (Count)
system.cpu0.commit.committedInstType_0::FloatMisc            0      0.00%     77.21% # Class of committed instruction (Count)
system.cpu0.commit.committedInstType_0::FloatSqrt            0      0.00%     77.21% # Class of committed instruction (Count)
system.cpu0.commit.committedInstType_0::SimdAdd            0      0.00%     77.21% # Class of committed instruction (Count)
system.cpu0.commit.committedInstType_0::SimdAddAcc            0      0.00%     77.21% # Class of committed instruction (Count)
system.cpu0.commit.committedInstType_0::SimdAlu          108      0.00%     77.21% # Class of committed instruction (Count)
system.cpu0.commit.committedInstType_0::SimdCmp            0      0.00%     77.21% # Class of committed instruction (Count)
system.cpu0.commit.committedInstType_0::SimdCvt           50      0.00%     77.21% # Class of committed instruction (Count)
system.cpu0.commit.committedInstType_0::SimdMisc        10262      0.09%     77.30% # Class of committed instruction (Count)
system.cpu0.commit.committedInstType_0::SimdMult            0      0.00%     77.30% # Class of committed instruction (Count)
system.cpu0.commit.committedInstType_0::SimdMultAcc            0      0.00%     77.30% # Class of committed instruction (Count)
system.cpu0.commit.committedInstType_0::SimdShift            0      0.00%     77.30% # Class of committed instruction (Count)
system.cpu0.commit.committedInstType_0::SimdShiftAcc            0      0.00%     77.30% # Class of committed instruction (Count)
system.cpu0.commit.committedInstType_0::SimdDiv            0      0.00%     77.30% # Class of committed instruction (Count)
system.cpu0.commit.committedInstType_0::SimdSqrt            0      0.00%     77.30% # Class of committed instruction (Count)
system.cpu0.commit.committedInstType_0::SimdFloatAdd            0      0.00%     77.30% # Class of committed instruction (Count)
system.cpu0.commit.committedInstType_0::SimdFloatAlu            0      0.00%     77.30% # Class of committed instruction (Count)
system.cpu0.commit.committedInstType_0::SimdFloatCmp            0      0.00%     77.30% # Class of committed instruction (Count)
system.cpu0.commit.committedInstType_0::SimdFloatCvt            0      0.00%     77.30% # Class of committed instruction (Count)
system.cpu0.commit.committedInstType_0::SimdFloatDiv            0      0.00%     77.30% # Class of committed instruction (Count)
system.cpu0.commit.committedInstType_0::SimdFloatMisc            0      0.00%     77.30% # Class of committed instruction (Count)
system.cpu0.commit.committedInstType_0::SimdFloatMult            0      0.00%     77.30% # Class of committed instruction (Count)
system.cpu0.commit.committedInstType_0::SimdFloatMultAcc            0      0.00%     77.30% # Class of committed instruction (Count)
system.cpu0.commit.committedInstType_0::SimdFloatSqrt            0      0.00%     77.30% # Class of committed instruction (Count)
system.cpu0.commit.committedInstType_0::SimdReduceAdd            0      0.00%     77.30% # Class of committed instruction (Count)
system.cpu0.commit.committedInstType_0::SimdReduceAlu            0      0.00%     77.30% # Class of committed instruction (Count)
system.cpu0.commit.committedInstType_0::SimdReduceCmp            0      0.00%     77.30% # Class of committed instruction (Count)
system.cpu0.commit.committedInstType_0::SimdFloatReduceAdd            0      0.00%     77.30% # Class of committed instruction (Count)
system.cpu0.commit.committedInstType_0::SimdFloatReduceCmp            0      0.00%     77.30% # Class of committed instruction (Count)
system.cpu0.commit.committedInstType_0::SimdAes            0      0.00%     77.30% # Class of committed instruction (Count)
system.cpu0.commit.committedInstType_0::SimdAesMix            0      0.00%     77.30% # Class of committed instruction (Count)
system.cpu0.commit.committedInstType_0::SimdSha1Hash            0      0.00%     77.30% # Class of committed instruction (Count)
system.cpu0.commit.committedInstType_0::SimdSha1Hash2            0      0.00%     77.30% # Class of committed instruction (Count)
system.cpu0.commit.committedInstType_0::SimdSha256Hash            0      0.00%     77.30% # Class of committed instruction (Count)
system.cpu0.commit.committedInstType_0::SimdSha256Hash2            0      0.00%     77.30% # Class of committed instruction (Count)
system.cpu0.commit.committedInstType_0::SimdShaSigma2            0      0.00%     77.30% # Class of committed instruction (Count)
system.cpu0.commit.committedInstType_0::SimdShaSigma3            0      0.00%     77.30% # Class of committed instruction (Count)
system.cpu0.commit.committedInstType_0::SimdPredAlu            0      0.00%     77.30% # Class of committed instruction (Count)
system.cpu0.commit.committedInstType_0::MemRead      1516661     12.91%     90.21% # Class of committed instruction (Count)
system.cpu0.commit.committedInstType_0::MemWrite      1059244      9.02%     99.23% # Class of committed instruction (Count)
system.cpu0.commit.committedInstType_0::FloatMemRead        30144      0.26%     99.48% # Class of committed instruction (Count)
system.cpu0.commit.committedInstType_0::FloatMemWrite        60760      0.52%    100.00% # Class of committed instruction (Count)
system.cpu0.commit.committedInstType_0::IprAccess            0      0.00%    100.00% # Class of committed instruction (Count)
system.cpu0.commit.committedInstType_0::InstPrefetch            0      0.00%    100.00% # Class of committed instruction (Count)
system.cpu0.commit.committedInstType_0::total     11749122                       # Class of committed instruction (Count)
system.cpu0.commit.commitEligibleSamples       679167                       # number cycles where commit BW limit reached (Cycle)
system.cpu0.decode.idleCycles                 1047508                       # Number of cycles decode is idle (Cycle)
system.cpu0.decode.blockedCycles               122712                       # Number of cycles decode is blocked (Cycle)
system.cpu0.decode.runCycles                  1922303                       # Number of cycles decode is running (Cycle)
system.cpu0.decode.unblockCycles                12937                       # Number of cycles decode is unblocking (Cycle)
system.cpu0.decode.squashCycles                  4986                       # Number of cycles decode is squashing (Cycle)
system.cpu0.decode.branchResolved              607104                       # Number of times decode resolved a branch (Count)
system.cpu0.decode.branchMispred                  376                       # Number of times decode detected a branch misprediction (Count)
system.cpu0.decode.decodedInsts              11932464                       # Number of instructions handled by decode (Count)
system.cpu0.decode.squashedInsts                 1750                       # Number of squashed instructions handled by decode (Count)
system.cpu0.fetch.icacheStallCycles           1016402                       # Number of cycles fetch is stalled on an Icache miss (Cycle)
system.cpu0.fetch.insts                       6507237                       # Number of instructions fetch has processed (Count)
system.cpu0.fetch.branches                    1386617                       # Number of branches that fetch encountered (Count)
system.cpu0.fetch.predictedBranches            678730                       # Number of branches that fetch has predicted taken (Count)
system.cpu0.fetch.cycles                      2088072                       # Number of cycles fetch has run and was not squashing or blocked (Cycle)
system.cpu0.fetch.squashCycles                  10698                       # Number of cycles fetch has spent squashing (Cycle)
system.cpu0.fetch.miscStallCycles                 150                       # Number of cycles fetch has spent waiting on interrupts, or bad addresses, or out of MSHRs (Cycle)
system.cpu0.fetch.pendingTrapStallCycles          451                       # Number of stall cycles due to pending traps (Cycle)
system.cpu0.fetch.pendingQuiesceStallCycles            5                       # Number of stall cycles due to pending quiesce instructions (Cycle)
system.cpu0.fetch.icacheWaitRetryStallCycles           17                       # Number of stall cycles due to full MSHR (Cycle)
system.cpu0.fetch.cacheLines                   986509                       # Number of cache lines fetched (Count)
system.cpu0.fetch.icacheSquashes                 1834                       # Number of outstanding Icache misses that were squashed (Count)
system.cpu0.fetch.nisnDist::samples           3110446                       # Number of instructions fetched each cycle (Total)
system.cpu0.fetch.nisnDist::mean             3.840755                       # Number of instructions fetched each cycle (Total)
system.cpu0.fetch.nisnDist::stdev            3.482697                       # Number of instructions fetched each cycle (Total)
system.cpu0.fetch.nisnDist::underflows              0      0.00%      0.00% # Number of instructions fetched each cycle (Total)
system.cpu0.fetch.nisnDist::0                 1164314     37.43%     37.43% # Number of instructions fetched each cycle (Total)
system.cpu0.fetch.nisnDist::1                   90396      2.91%     40.34% # Number of instructions fetched each cycle (Total)
system.cpu0.fetch.nisnDist::2                   84091      2.70%     43.04% # Number of instructions fetched each cycle (Total)
system.cpu0.fetch.nisnDist::3                  233941      7.52%     50.56% # Number of instructions fetched each cycle (Total)
system.cpu0.fetch.nisnDist::4                   92333      2.97%     53.53% # Number of instructions fetched each cycle (Total)
system.cpu0.fetch.nisnDist::5                  151577      4.87%     58.40% # Number of instructions fetched each cycle (Total)
system.cpu0.fetch.nisnDist::6                  190696      6.13%     64.54% # Number of instructions fetched each cycle (Total)
system.cpu0.fetch.nisnDist::7                  110116      3.54%     68.08% # Number of instructions fetched each cycle (Total)
system.cpu0.fetch.nisnDist::8                  992982     31.92%    100.00% # Number of instructions fetched each cycle (Total)
system.cpu0.fetch.nisnDist::overflows               0      0.00%    100.00% # Number of instructions fetched each cycle (Total)
system.cpu0.fetch.nisnDist::min_value               0                       # Number of instructions fetched each cycle (Total)
system.cpu0.fetch.nisnDist::max_value               8                       # Number of instructions fetched each cycle (Total)
system.cpu0.fetch.nisnDist::total             3110446                       # Number of instructions fetched each cycle (Total)
system.cpu0.fetch.branchRate                 0.439757                       # Number of branch fetches per cycle (Ratio)
system.cpu0.fetch.rate                       2.063731                       # Number of inst fetches per cycle ((Count/Cycle))
system.cpu0.interrupts.clk_domain.clock          8000                       # Clock period in ticks (Tick)
system.cpu0.lsq0.forwLoads                     288179                       # Number of loads that had data forwarded from stores (Count)
system.cpu0.lsq0.squashedLoads                   8257                       # Number of loads squashed (Count)
system.cpu0.lsq0.ignoredResponses                 204                       # Number of memory responses ignored because the instruction is squashed (Count)
system.cpu0.lsq0.memOrderViolation                101                       # Number of memory ordering violations (Count)
system.cpu0.lsq0.squashedStores                  9086                       # Number of stores squashed (Count)
system.cpu0.lsq0.rescheduledLoads               10000                       # Number of loads that were rescheduled (Count)
system.cpu0.lsq0.blockedByCache                     1                       # Number of times an access to memory failed due to the cache being blocked (Count)
system.cpu0.mmu.dtb.rdAccesses                1563072                       # TLB accesses on read requests (Count)
system.cpu0.mmu.dtb.wrAccesses                1126096                       # TLB accesses on write requests (Count)
system.cpu0.mmu.dtb.rdMisses                      126                       # TLB misses on read requests (Count)
system.cpu0.mmu.dtb.wrMisses                       67                       # TLB misses on write requests (Count)
system.cpu0.mmu.dtb.walker.power_state.pwrStateResidencyTicks::UNDEFINED  29959334000                       # Cumulative time (in ticks) in various power states (Tick)
system.cpu0.mmu.itb.rdAccesses                      0                       # TLB accesses on read requests (Count)
system.cpu0.mmu.itb.wrAccesses                 986589                       # TLB accesses on write requests (Count)
system.cpu0.mmu.itb.rdMisses                        0                       # TLB misses on read requests (Count)
system.cpu0.mmu.itb.wrMisses                      163                       # TLB misses on write requests (Count)
system.cpu0.mmu.itb.walker.power_state.pwrStateResidencyTicks::UNDEFINED  29959334000                       # Cumulative time (in ticks) in various power states (Tick)
system.cpu0.power_state.numTransitions              2                       # Number of power state transitions (Count)
system.cpu0.power_state.ticksClkGated::samples            1                       # Distribution of time spent in the clock gated state
system.cpu0.power_state.ticksClkGated::mean  28382764000                       # Distribution of time spent in the clock gated state
system.cpu0.power_state.ticksClkGated::1000-5e+10            1    100.00%    100.00% # Distribution of time spent in the clock gated state
system.cpu0.power_state.ticksClkGated::min_value  28382764000                       # Distribution of time spent in the clock gated state
system.cpu0.power_state.ticksClkGated::max_value  28382764000                       # Distribution of time spent in the clock gated state
system.cpu0.power_state.ticksClkGated::total            1                       # Distribution of time spent in the clock gated state
system.cpu0.power_state.pwrStateResidencyTicks::ON   1576570000                       # Cumulative time (in ticks) in various power states (Tick)
system.cpu0.power_state.pwrStateResidencyTicks::CLK_GATED  28382764000                       # Cumulative time (in ticks) in various power states (Tick)
system.cpu0.rename.squashCycles                  4986                       # Number of cycles rename is squashing (Cycle)
system.cpu0.rename.idleCycles                 1056098                       # Number of cycles rename is idle (Cycle)
system.cpu0.rename.blockCycles                  29535                       # Number of cycles rename is blocking (Cycle)
system.cpu0.rename.serializeStallCycles            85                       # count of cycles rename stalled for serializing inst (Cycle)
system.cpu0.rename.runCycles                  1925530                       # Number of cycles rename is running (Cycle)
system.cpu0.rename.unblockCycles                94212                       # Number of cycles rename is unblocking (Cycle)
system.cpu0.rename.renamedInsts              11910084                       # Number of instructions processed by rename (Count)
system.cpu0.rename.ROBFullEvents                  705                       # Number of times rename has blocked due to ROB full (Count)
system.cpu0.rename.IQFullEvents                   522                       # Number of times rename has blocked due to IQ full (Count)
system.cpu0.rename.SQFullEvents                 88514                       # Number of times rename has blocked due to SQ full (Count)
system.cpu0.rename.renamedOperands           12876700                       # Number of destination operands rename has renamed (Count)
system.cpu0.rename.lookups                   30399936                       # Number of register rename lookups that rename has made (Count)
system.cpu0.rename.intLookups                17947298                       # Number of integer rename lookups (Count)
system.cpu0.rename.fpLookups                    92332                       # Number of floating rename lookups (Count)
system.cpu0.rename.committedMaps             12693348                       # Number of HB maps that are committed (Count)
system.cpu0.rename.undoneMaps                  183338                       # Number of HB maps that are undone due to squashing (Count)
system.cpu0.rename.serializing                      3                       # count of serializing insts renamed (Count)
system.cpu0.rename.tempSerializing                  3                       # count of temporary serializing insts renamed (Count)
system.cpu0.rename.skidInsts                    65167                       # count of insts added to the skid buffer (Count)
system.cpu0.rob.reads                        14277420                       # The number of ROB reads (Count)
system.cpu0.rob.writes                       23745151                       # The number of ROB writes (Count)
system.cpu0.thread_0.numInsts                 6402026                       # Number of Instructions committed (Count)
system.cpu0.thread_0.numOps                  11749122                       # Number of Ops committed (Count)
system.cpu0.thread_0.numMemRefs                     0                       # Number of Memory References (Count)
system.cpu0.workload.numSyscalls                   30                       # Number of system calls (Count)
system.cpu1.numCycles                        56771186                       # Number of cpu cycles simulated (Cycle)
system.cpu1.numWorkItemsStarted                     0                       # Number of work items this cpu started (Count)
system.cpu1.numWorkItemsCompleted                   0                       # Number of work items this cpu completed (Count)
system.cpu1.instsAdded                      186526544                       # Number of instructions added to the IQ (excludes non-spec) (Count)
system.cpu1.nonSpecInstsAdded                  158748                       # Number of non-speculative instructions added to the IQ (Count)
system.cpu1.instsIssued                     183334559                       # Number of instructions issued (Count)
system.cpu1.squashedInstsIssued                189010                       # Number of squashed instructions issued (Count)
system.cpu1.squashedInstsExamined             7931267                       # Number of squashed instructions iterated over during squash; mainly for profiling (Count)
system.cpu1.squashedOperandsExamined         13775392                       # Number of squashed operands that are examined and possibly removed from graph (Count)
system.cpu1.squashedNonSpecRemoved              17772                       # Number of squashed non-spec instructions that were removed (Count)
system.cpu1.numIssuedDist::samples           56740072                       # Number of insts issued each cycle
system.cpu1.numIssuedDist::mean              3.231130                       # Number of insts issued each cycle
system.cpu1.numIssuedDist::stdev             2.294164                       # Number of insts issued each cycle
system.cpu1.numIssuedDist::underflows               0      0.00%      0.00% # Number of insts issued each cycle
system.cpu1.numIssuedDist::0                 13930063     24.55%     24.55% # Number of insts issued each cycle
system.cpu1.numIssuedDist::1                  5659366      9.97%     34.52% # Number of insts issued each cycle
system.cpu1.numIssuedDist::2                  1388539      2.45%     36.97% # Number of insts issued each cycle
system.cpu1.numIssuedDist::3                  1432324      2.52%     39.50% # Number of insts issued each cycle
system.cpu1.numIssuedDist::4                  8491707     14.97%     54.46% # Number of insts issued each cycle
system.cpu1.numIssuedDist::5                 19728316     34.77%     89.23% # Number of insts issued each cycle
system.cpu1.numIssuedDist::6                  5043634      8.89%     98.12% # Number of insts issued each cycle
system.cpu1.numIssuedDist::7                   798053      1.41%     99.53% # Number of insts issued each cycle
system.cpu1.numIssuedDist::8                   268070      0.47%    100.00% # Number of insts issued each cycle
system.cpu1.numIssuedDist::overflows                0      0.00%    100.00% # Number of insts issued each cycle
system.cpu1.numIssuedDist::min_value                0                       # Number of insts issued each cycle
system.cpu1.numIssuedDist::max_value                8                       # Number of insts issued each cycle
system.cpu1.numIssuedDist::total             56740072                       # Number of insts issued each cycle
system.cpu1.statFuBusy::No_OpClass                  0      0.00%      0.00% # attempts to use FU when none available (Count)
system.cpu1.statFuBusy::IntAlu                 663570     80.76%     80.76% # attempts to use FU when none available (Count)
system.cpu1.statFuBusy::IntMult                     0      0.00%     80.76% # attempts to use FU when none available (Count)
system.cpu1.statFuBusy::IntDiv                      0      0.00%     80.76% # attempts to use FU when none available (Count)
system.cpu1.statFuBusy::FloatAdd                    0      0.00%     80.76% # attempts to use FU when none available (Count)
system.cpu1.statFuBusy::FloatCmp                    0      0.00%     80.76% # attempts to use FU when none available (Count)
system.cpu1.statFuBusy::FloatCvt                    0      0.00%     80.76% # attempts to use FU when none available (Count)
system.cpu1.statFuBusy::FloatMult                   0      0.00%     80.76% # attempts to use FU when none available (Count)
system.cpu1.statFuBusy::FloatMultAcc                0      0.00%     80.76% # attempts to use FU when none available (Count)
system.cpu1.statFuBusy::FloatDiv                    0      0.00%     80.76% # attempts to use FU when none available (Count)
system.cpu1.statFuBusy::FloatMisc                   0      0.00%     80.76% # attempts to use FU when none available (Count)
system.cpu1.statFuBusy::FloatSqrt                   0      0.00%     80.76% # attempts to use FU when none available (Count)
system.cpu1.statFuBusy::SimdAdd                     0      0.00%     80.76% # attempts to use FU when none available (Count)
system.cpu1.statFuBusy::SimdAddAcc                  0      0.00%     80.76% # attempts to use FU when none available (Count)
system.cpu1.statFuBusy::SimdAlu                   112      0.01%     80.77% # attempts to use FU when none available (Count)
system.cpu1.statFuBusy::SimdCmp                     0      0.00%     80.77% # attempts to use FU when none available (Count)
system.cpu1.statFuBusy::SimdCvt                    55      0.01%     80.78% # attempts to use FU when none available (Count)
system.cpu1.statFuBusy::SimdMisc                    1      0.00%     80.78% # attempts to use FU when none available (Count)
system.cpu1.statFuBusy::SimdMult                    0      0.00%     80.78% # attempts to use FU when none available (Count)
system.cpu1.statFuBusy::SimdMultAcc                 0      0.00%     80.78% # attempts to use FU when none available (Count)
system.cpu1.statFuBusy::SimdShift                   0      0.00%     80.78% # attempts to use FU when none available (Count)
system.cpu1.statFuBusy::SimdShiftAcc                0      0.00%     80.78% # attempts to use FU when none available (Count)
system.cpu1.statFuBusy::SimdDiv                     0      0.00%     80.78% # attempts to use FU when none available (Count)
system.cpu1.statFuBusy::SimdSqrt                    0      0.00%     80.78% # attempts to use FU when none available (Count)
system.cpu1.statFuBusy::SimdFloatAdd                0      0.00%     80.78% # attempts to use FU when none available (Count)
system.cpu1.statFuBusy::SimdFloatAlu                0      0.00%     80.78% # attempts to use FU when none available (Count)
system.cpu1.statFuBusy::SimdFloatCmp                0      0.00%     80.78% # attempts to use FU when none available (Count)
system.cpu1.statFuBusy::SimdFloatCvt                0      0.00%     80.78% # attempts to use FU when none available (Count)
system.cpu1.statFuBusy::SimdFloatDiv                0      0.00%     80.78% # attempts to use FU when none available (Count)
system.cpu1.statFuBusy::SimdFloatMisc               0      0.00%     80.78% # attempts to use FU when none available (Count)
system.cpu1.statFuBusy::SimdFloatMult               0      0.00%     80.78% # attempts to use FU when none available (Count)
system.cpu1.statFuBusy::SimdFloatMultAcc            0      0.00%     80.78% # attempts to use FU when none available (Count)
system.cpu1.statFuBusy::SimdFloatSqrt               0      0.00%     80.78% # attempts to use FU when none available (Count)
system.cpu1.statFuBusy::SimdReduceAdd               0      0.00%     80.78% # attempts to use FU when none available (Count)
system.cpu1.statFuBusy::SimdReduceAlu               0      0.00%     80.78% # attempts to use FU when none available (Count)
system.cpu1.statFuBusy::SimdReduceCmp               0      0.00%     80.78% # attempts to use FU when none available (Count)
system.cpu1.statFuBusy::SimdFloatReduceAdd            0      0.00%     80.78% # attempts to use FU when none available (Count)
system.cpu1.statFuBusy::SimdFloatReduceCmp            0      0.00%     80.78% # attempts to use FU when none available (Count)
system.cpu1.statFuBusy::SimdAes                     0      0.00%     80.78% # attempts to use FU when none available (Count)
system.cpu1.statFuBusy::SimdAesMix                  0      0.00%     80.78% # attempts to use FU when none available (Count)
system.cpu1.statFuBusy::SimdSha1Hash                0      0.00%     80.78% # attempts to use FU when none available (Count)
system.cpu1.statFuBusy::SimdSha1Hash2               0      0.00%     80.78% # attempts to use FU when none available (Count)
system.cpu1.statFuBusy::SimdSha256Hash              0      0.00%     80.78% # attempts to use FU when none available (Count)
system.cpu1.statFuBusy::SimdSha256Hash2             0      0.00%     80.78% # attempts to use FU when none available (Count)
system.cpu1.statFuBusy::SimdShaSigma2               0      0.00%     80.78% # attempts to use FU when none available (Count)
system.cpu1.statFuBusy::SimdShaSigma3               0      0.00%     80.78% # attempts to use FU when none available (Count)
system.cpu1.statFuBusy::SimdPredAlu                 0      0.00%     80.78% # attempts to use FU when none available (Count)
system.cpu1.statFuBusy::MemRead                100997     12.29%     93.07% # attempts to use FU when none available (Count)
system.cpu1.statFuBusy::MemWrite                56335      6.86%     99.92% # attempts to use FU when none available (Count)
system.cpu1.statFuBusy::FloatMemRead              322      0.04%     99.96% # attempts to use FU when none available (Count)
system.cpu1.statFuBusy::FloatMemWrite             305      0.04%    100.00% # attempts to use FU when none available (Count)
system.cpu1.statFuBusy::IprAccess                   0      0.00%    100.00% # attempts to use FU when none available (Count)
system.cpu1.statFuBusy::InstPrefetch                0      0.00%    100.00% # attempts to use FU when none available (Count)
system.cpu1.statIssuedInstType_0::No_OpClass       201849      0.11%      0.11% # Number of instructions issued per FU type, per thread (Count)
system.cpu1.statIssuedInstType_0::IntAlu    154437647     84.24%     84.35% # Number of instructions issued per FU type, per thread (Count)
system.cpu1.statIssuedInstType_0::IntMult         1281      0.00%     84.35% # Number of instructions issued per FU type, per thread (Count)
system.cpu1.statIssuedInstType_0::IntDiv            7      0.00%     84.35% # Number of instructions issued per FU type, per thread (Count)
system.cpu1.statIssuedInstType_0::FloatAdd        44430      0.02%     84.37% # Number of instructions issued per FU type, per thread (Count)
system.cpu1.statIssuedInstType_0::FloatCmp            0      0.00%     84.37% # Number of instructions issued per FU type, per thread (Count)
system.cpu1.statIssuedInstType_0::FloatCvt            0      0.00%     84.37% # Number of instructions issued per FU type, per thread (Count)
system.cpu1.statIssuedInstType_0::FloatMult            0      0.00%     84.37% # Number of instructions issued per FU type, per thread (Count)
system.cpu1.statIssuedInstType_0::FloatMultAcc            0      0.00%     84.37% # Number of instructions issued per FU type, per thread (Count)
system.cpu1.statIssuedInstType_0::FloatDiv            0      0.00%     84.37% # Number of instructions issued per FU type, per thread (Count)
system.cpu1.statIssuedInstType_0::FloatMisc            0      0.00%     84.37% # Number of instructions issued per FU type, per thread (Count)
system.cpu1.statIssuedInstType_0::FloatSqrt            0      0.00%     84.37% # Number of instructions issued per FU type, per thread (Count)
system.cpu1.statIssuedInstType_0::SimdAdd          514      0.00%     84.37% # Number of instructions issued per FU type, per thread (Count)
system.cpu1.statIssuedInstType_0::SimdAddAcc            0      0.00%     84.37% # Number of instructions issued per FU type, per thread (Count)
system.cpu1.statIssuedInstType_0::SimdAlu         6893      0.00%     84.38% # Number of instructions issued per FU type, per thread (Count)
system.cpu1.statIssuedInstType_0::SimdCmp            0      0.00%     84.38% # Number of instructions issued per FU type, per thread (Count)
system.cpu1.statIssuedInstType_0::SimdCvt         5615      0.00%     84.38% # Number of instructions issued per FU type, per thread (Count)
system.cpu1.statIssuedInstType_0::SimdMisc        33716      0.02%     84.40% # Number of instructions issued per FU type, per thread (Count)
system.cpu1.statIssuedInstType_0::SimdMult            0      0.00%     84.40% # Number of instructions issued per FU type, per thread (Count)
system.cpu1.statIssuedInstType_0::SimdMultAcc            0      0.00%     84.40% # Number of instructions issued per FU type, per thread (Count)
system.cpu1.statIssuedInstType_0::SimdShift            0      0.00%     84.40% # Number of instructions issued per FU type, per thread (Count)
system.cpu1.statIssuedInstType_0::SimdShiftAcc            0      0.00%     84.40% # Number of instructions issued per FU type, per thread (Count)
system.cpu1.statIssuedInstType_0::SimdDiv            0      0.00%     84.40% # Number of instructions issued per FU type, per thread (Count)
system.cpu1.statIssuedInstType_0::SimdSqrt            0      0.00%     84.40% # Number of instructions issued per FU type, per thread (Count)
system.cpu1.statIssuedInstType_0::SimdFloatAdd            0      0.00%     84.40% # Number of instructions issued per FU type, per thread (Count)
system.cpu1.statIssuedInstType_0::SimdFloatAlu            0      0.00%     84.40% # Number of instructions issued per FU type, per thread (Count)
system.cpu1.statIssuedInstType_0::SimdFloatCmp            0      0.00%     84.40% # Number of instructions issued per FU type, per thread (Count)
system.cpu1.statIssuedInstType_0::SimdFloatCvt            0      0.00%     84.40% # Number of instructions issued per FU type, per thread (Count)
system.cpu1.statIssuedInstType_0::SimdFloatDiv            0      0.00%     84.40% # Number of instructions issued per FU type, per thread (Count)
system.cpu1.statIssuedInstType_0::SimdFloatMisc            0      0.00%     84.40% # Number of instructions issued per FU type, per thread (Count)
system.cpu1.statIssuedInstType_0::SimdFloatMult            0      0.00%     84.40% # Number of instructions issued per FU type, per thread (Count)
system.cpu1.statIssuedInstType_0::SimdFloatMultAcc            0      0.00%     84.40% # Number of instructions issued per FU type, per thread (Count)
system.cpu1.statIssuedInstType_0::SimdFloatSqrt            0      0.00%     84.40% # Number of instructions issued per FU type, per thread (Count)
system.cpu1.statIssuedInstType_0::SimdReduceAdd            0      0.00%     84.40% # Number of instructions issued per FU type, per thread (Count)
system.cpu1.statIssuedInstType_0::SimdReduceAlu            0      0.00%     84.40% # Number of instructions issued per FU type, per thread (Count)
system.cpu1.statIssuedInstType_0::SimdReduceCmp            0      0.00%     84.40% # Number of instructions issued per FU type, per thread (Count)
system.cpu1.statIssuedInstType_0::SimdFloatReduceAdd            0      0.00%     84.40% # Number of instructions issued per FU type, per thread (Count)
system.cpu1.statIssuedInstType_0::SimdFloatReduceCmp            0      0.00%     84.40% # Number of instructions issued per FU type, per thread (Count)
system.cpu1.statIssuedInstType_0::SimdAes            0      0.00%     84.40% # Number of instructions issued per FU type, per thread (Count)
system.cpu1.statIssuedInstType_0::SimdAesMix            0      0.00%     84.40% # Number of instructions issued per FU type, per thread (Count)
system.cpu1.statIssuedInstType_0::SimdSha1Hash            0      0.00%     84.40% # Number of instructions issued per FU type, per thread (Count)
system.cpu1.statIssuedInstType_0::SimdSha1Hash2            0      0.00%     84.40% # Number of instructions issued per FU type, per thread (Count)
system.cpu1.statIssuedInstType_0::SimdSha256Hash            0      0.00%     84.40% # Number of instructions issued per FU type, per thread (Count)
system.cpu1.statIssuedInstType_0::SimdSha256Hash2            0      0.00%     84.40% # Number of instructions issued per FU type, per thread (Count)
system.cpu1.statIssuedInstType_0::SimdShaSigma2            0      0.00%     84.40% # Number of instructions issued per FU type, per thread (Count)
system.cpu1.statIssuedInstType_0::SimdShaSigma3            0      0.00%     84.40% # Number of instructions issued per FU type, per thread (Count)
system.cpu1.statIssuedInstType_0::SimdPredAlu            0      0.00%     84.40% # Number of instructions issued per FU type, per thread (Count)
system.cpu1.statIssuedInstType_0::MemRead     19013019     10.37%     94.77% # Number of instructions issued per FU type, per thread (Count)
system.cpu1.statIssuedInstType_0::MemWrite      9524684      5.20%     99.96% # Number of instructions issued per FU type, per thread (Count)
system.cpu1.statIssuedInstType_0::FloatMemRead        22282      0.01%     99.98% # Number of instructions issued per FU type, per thread (Count)
system.cpu1.statIssuedInstType_0::FloatMemWrite        42622      0.02%    100.00% # Number of instructions issued per FU type, per thread (Count)
system.cpu1.statIssuedInstType_0::IprAccess            0      0.00%    100.00% # Number of instructions issued per FU type, per thread (Count)
system.cpu1.statIssuedInstType_0::InstPrefetch            0      0.00%    100.00% # Number of instructions issued per FU type, per thread (Count)
system.cpu1.statIssuedInstType_0::total     183334559                       # Number of instructions issued per FU type, per thread (Count)
system.cpu1.issueRate                        3.229359                       # Inst issue rate ((Count/Cycle))
system.cpu1.fuBusy                             821697                       # FU busy when requested (Count)
system.cpu1.fuBusyRate                       0.004482                       # FU busy rate (busy events/executed inst) ((Count/Count))
system.cpu1.intInstQueueReads               424056114                       # Number of integer instruction queue reads (Count)
system.cpu1.intInstQueueWrites              194406957                       # Number of integer instruction queue writes (Count)
system.cpu1.intInstQueueWakeupAccesses      182520237                       # Number of integer instruction queue wakeup accesses (Count)
system.cpu1.fpInstQueueReads                   363783                       # Number of floating instruction queue reads (Count)
system.cpu1.fpInstQueueWrites                  229568                       # Number of floating instruction queue writes (Count)
system.cpu1.fpInstQueueWakeupAccesses          180522                       # Number of floating instruction queue wakeup accesses (Count)
system.cpu1.vecInstQueueReads                       0                       # Number of vector instruction queue reads (Count)
system.cpu1.vecInstQueueWrites                      0                       # Number of vector instruction queue writes (Count)
system.cpu1.vecInstQueueWakeupAccesses              0                       # Number of vector instruction queue wakeup accesses (Count)
system.cpu1.intAluAccesses                  183772136                       # Number of integer alu accesses (Count)
system.cpu1.fpAluAccesses                      182271                       # Number of floating point alu accesses (Count)
system.cpu1.vecAluAccesses                          0                       # Number of vector alu accesses (Count)
system.cpu1.idleCycles                              0                       # Number of cycles IEW is idle (Cycle)
system.cpu1.squashCycles                       156403                       # Number of cycles IEW is squashing (Cycle)
system.cpu1.blockCycles                       1130488                       # Number of cycles IEW is blocking (Cycle)
system.cpu1.unblockCycles                       63390                       # Number of cycles IEW is unblocking (Cycle)
system.cpu1.dispatchedInsts                 186685292                       # Number of instructions dispatched to IQ (Count)
system.cpu1.dispSquashedInsts                     109                       # Number of squashed instructions skipped by dispatch (Count)
system.cpu1.dispLoadInsts                    19663952                       # Number of dispatched load instructions (Count)
system.cpu1.dispStoreInsts                    9767400                       # Number of dispatched store instructions (Count)
system.cpu1.dispNonSpecInsts                    52915                       # Number of dispatched non-speculative instructions (Count)
system.cpu1.iqFullEvents                        52274                       # Number of times the IQ has become full, causing a stall (Count)
system.cpu1.lsqFullEvents                           0                       # Number of times the LSQ has become full, causing a stall (Count)
system.cpu1.memOrderViolationEvents             39037                       # Number of memory order violations (Count)
system.cpu1.predictedTakenIncorrect            119021                       # Number of branches that were predicted taken incorrectly (Count)
system.cpu1.predictedNotTakenIncorrect          21692                       # Number of branches that were predicted not taken incorrectly (Count)
system.cpu1.branchMispredicts                  140713                       # Number of branch mispredicts detected at execute (Count)
system.cpu1.numInsts                        182830811                       # Number of executed instructions (Count)
system.cpu1.numLoadInsts                     19014669                       # Number of load instructions executed (Count)
system.cpu1.numSquashedInsts                   503748                       # Number of squashed instructions skipped in execute (Count)
system.cpu1.numSwp                                  0                       # Number of swp insts executed (Count)
system.cpu1.numNop                                  0                       # Number of nop insts executed (Count)
system.cpu1.numRefs                          28554514                       # Number of memory reference insts executed (Count)
system.cpu1.numBranches                      22551418                       # Number of branches executed (Count)
system.cpu1.numStoreInsts                     9539845                       # Number of stores executed (Count)
system.cpu1.numRate                          3.220486                       # Inst execution rate ((Count/Cycle))
system.cpu1.instsToCommit                   182820757                       # Cumulative count of insts sent to commit (Count)
system.cpu1.writebackCount                  182700759                       # Cumulative count of insts written-back (Count)
system.cpu1.producerInst                    137209140                       # Number of instructions producing a value (Count)
system.cpu1.consumerInst                    209902830                       # Number of instructions consuming a value (Count)
system.cpu1.wbRate                           3.218195                       # Insts written-back per cycle ((Count/Cycle))
system.cpu1.wbFanout                         0.653679                       # Average fanout of values written-back ((Count/Count))
system.cpu1.timesIdled                            964                       # Number of times that the entire CPU went into an idle state and unscheduled itself (Count)
system.cpu1.idleCycles                          31114                       # Total number of cycles that the CPU has spent unscheduled due to idling (Cycle)
system.cpu1.quiesceCycles                     3139470                       # Total number of cycles that CPU has spent quiesced or waiting for an interrupt (Cycle)
system.cpu1.committedInsts                   98291709                       # Number of Instructions Simulated (Count)
system.cpu1.committedOps                    178754025                       # Number of Ops (including micro ops) Simulated (Count)
system.cpu1.cpi                              0.577579                       # CPI: Cycles Per Instruction ((Cycle/Count))
system.cpu1.totalCpi                         0.577579                       # CPI: Total CPI of All Threads ((Cycle/Count))
system.cpu1.ipc                              1.731366                       # IPC: Instructions Per Cycle ((Count/Cycle))
system.cpu1.totalIpc                         1.731366                       # IPC: Total IPC of All Threads ((Count/Cycle))
system.cpu1.intRegfileReads                 245197188                       # Number of integer regfile reads (Count)
system.cpu1.intRegfileWrites                150261143                       # Number of integer regfile writes (Count)
system.cpu1.fpRegfileReads                     168625                       # Number of floating regfile reads (Count)
system.cpu1.fpRegfileWrites                    135217                       # Number of floating regfile writes (Count)
system.cpu1.ccRegfileReads                  116358491                       # number of cc regfile reads (Count)
system.cpu1.ccRegfileWrites                  62093845                       # number of cc regfile writes (Count)
system.cpu1.miscRegfileReads                 86473947                       # number of misc regfile reads (Count)
system.cpu1.miscRegfileWrites                       1                       # number of misc regfile writes (Count)
system.cpu1.MemDepUnit__0.insertedLoads      19663952                       # Number of loads inserted to the mem dependence unit. (Count)
system.cpu1.MemDepUnit__0.insertedStores      9767400                       # Number of stores inserted to the mem dependence unit. (Count)
system.cpu1.MemDepUnit__0.conflictingLoads      4457321                       # Number of conflicting loads. (Count)
system.cpu1.MemDepUnit__0.conflictingStores       830454                       # Number of conflicting stores. (Count)
system.cpu1.MemDepUnit__1.insertedLoads             0                       # Number of loads inserted to the mem dependence unit. (Count)
system.cpu1.MemDepUnit__1.insertedStores            0                       # Number of stores inserted to the mem dependence unit. (Count)
system.cpu1.MemDepUnit__1.conflictingLoads            0                       # Number of conflicting loads. (Count)
system.cpu1.MemDepUnit__1.conflictingStores            0                       # Number of conflicting stores. (Count)
system.cpu1.MemDepUnit__2.insertedLoads             0                       # Number of loads inserted to the mem dependence unit. (Count)
[...]
system.ruby.network.routers2.msg_count.Response_Data::2         7362                       (Unspecified)
system.ruby.network.routers2.msg_bytes.Response_Data::2       530064                       (Unspecified)
system.ruby.network.routers2.msg_count.ResponseL2hit_Data::2         8457                       (Unspecified)
system.ruby.network.routers2.msg_bytes.ResponseL2hit_Data::2       608904                       (Unspecified)
system.ruby.network.routers2.msg_count.Response_Control::2           18                       (Unspecified)
system.ruby.network.routers2.msg_bytes.Response_Control::2          144                       (Unspecified)
system.ruby.network.routers2.msg_count.Writeback_Data::0         7433                       (Unspecified)
system.ruby.network.routers2.msg_bytes.Writeback_Data::0       535176                       (Unspecified)
system.ruby.network.routers2.msg_count.Writeback_Control::0        10846                       (Unspecified)
system.ruby.network.routers2.msg_count.Writeback_Control::2        10846                       (Unspecified)
system.ruby.network.routers2.msg_bytes.Writeback_Control::0        86768                       (Unspecified)
system.ruby.network.routers2.msg_bytes.Writeback_Control::2        86768                       (Unspecified)
system.ruby.network.routers2.msg_count.Forwarded_Control::0          682                       (Unspecified)
system.ruby.network.routers2.msg_bytes.Forwarded_Control::0         5456                       (Unspecified)
system.ruby.network.routers2.msg_count.Unblock_Control::2        19091                       (Unspecified)
system.ruby.network.routers2.msg_bytes.Unblock_Control::2       152728                       (Unspecified)
system.ruby.network.routers2.port_buffers0.m_buf_msgs     0.000519                       # Average number of messages in buffer (Unspecified)
system.ruby.network.routers2.port_buffers0.m_stall_time  3000.807436                       # Average number of cycles messages are stalled in this MB (Unspecified)
system.ruby.network.routers2.port_buffers2.m_buf_msgs     0.000319                       # Average number of messages in buffer (Unspecified)
system.ruby.network.routers2.port_buffers2.m_stall_time  3000.005065                       # Average number of cycles messages are stalled in this MB (Unspecified)
system.ruby.network.routers2.port_buffers3.m_buf_msgs     0.000012                       # Average number of messages in buffer (Unspecified)
system.ruby.network.routers2.port_buffers3.m_stall_time   947.917559                       # Average number of cycles messages are stalled in this MB (Unspecified)
system.ruby.network.routers2.port_buffers4.m_buf_msgs     0.000063                       # Average number of messages in buffer (Unspecified)
system.ruby.network.routers2.port_buffers4.m_stall_time  1000.039420                       # Average number of cycles messages are stalled in this MB (Unspecified)
system.ruby.network.routers2.port_buffers5.m_buf_msgs     0.000461                       # Average number of messages in buffer (Unspecified)
system.ruby.network.routers2.port_buffers5.m_stall_time  9860.288883                       # Average number of cycles messages are stalled in this MB (Unspecified)
system.ruby.network.routers2.power_state.pwrStateResidencyTicks::UNDEFINED  29959334000                       # Cumulative time (in ticks) in various power states (Tick)
system.ruby.network.routers2.throttle00.link_utilization     0.116076                       (Unspecified)
system.ruby.network.routers2.throttle00.msg_count.Request_Control::0        12820                       (Unspecified)
system.ruby.network.routers2.throttle00.msg_bytes.Request_Control::0       102560                       (Unspecified)
system.ruby.network.routers2.throttle00.msg_count.Response_Data::2         3681                       (Unspecified)
system.ruby.network.routers2.throttle00.msg_bytes.Response_Data::2       265032                       (Unspecified)
system.ruby.network.routers2.throttle00.msg_count.Writeback_Data::0         7433                       (Unspecified)
system.ruby.network.routers2.throttle00.msg_bytes.Writeback_Data::0       535176                       (Unspecified)
system.ruby.network.routers2.throttle00.msg_count.Writeback_Control::0        10846                       (Unspecified)
system.ruby.network.routers2.throttle00.msg_bytes.Writeback_Control::0        86768                       (Unspecified)
system.ruby.network.routers2.throttle00.msg_count.Unblock_Control::2        15410                       (Unspecified)
system.ruby.network.routers2.throttle00.msg_bytes.Unblock_Control::2       123280                       (Unspecified)
system.ruby.network.routers2.throttle01.link_utilization     0.106937                       (Unspecified)
system.ruby.network.routers2.throttle01.msg_count.Request_Control::1         3681                       (Unspecified)
system.ruby.network.routers2.throttle01.msg_bytes.Request_Control::1        29448                       (Unspecified)
system.ruby.network.routers2.throttle01.msg_count.Response_Data::2         3681                       (Unspecified)
system.ruby.network.routers2.throttle01.msg_bytes.Response_Data::2       265032                       (Unspecified)
system.ruby.network.routers2.throttle01.msg_count.ResponseL2hit_Data::2         8457                       (Unspecified)
system.ruby.network.routers2.throttle01.msg_bytes.ResponseL2hit_Data::2       608904                       (Unspecified)
system.ruby.network.routers2.throttle01.msg_count.Response_Control::2           18                       (Unspecified)
system.ruby.network.routers2.throttle01.msg_bytes.Response_Control::2          144                       (Unspecified)
system.ruby.network.routers2.throttle01.msg_count.Writeback_Control::2        10846                       (Unspecified)
system.ruby.network.routers2.throttle01.msg_bytes.Writeback_Control::2        86768                       (Unspecified)
system.ruby.network.routers2.throttle01.msg_count.Forwarded_Control::0          682                       (Unspecified)
system.ruby.network.routers2.throttle01.msg_bytes.Forwarded_Control::0         5456                       (Unspecified)
system.ruby.network.routers2.throttle01.msg_count.Unblock_Control::2         3681                       (Unspecified)
system.ruby.network.routers2.throttle01.msg_bytes.Unblock_Control::2        29448                       (Unspecified)
system.ruby.network.routers3.percent_links_utilized     0.016894                       (Unspecified)
system.ruby.network.routers3.msg_count.Request_Control::1         3681                       (Unspecified)
system.ruby.network.routers3.msg_bytes.Request_Control::1        29448                       (Unspecified)
system.ruby.network.routers3.msg_count.Response_Data::2         3681                       (Unspecified)
system.ruby.network.routers3.msg_bytes.Response_Data::2       265032                       (Unspecified)
system.ruby.network.routers3.msg_count.Unblock_Control::2         3681                       (Unspecified)
system.ruby.network.routers3.msg_bytes.Unblock_Control::2        29448                       (Unspecified)
system.ruby.network.routers3.port_buffers1.m_buf_msgs     0.000061                       # Average number of messages in buffer (Unspecified)
system.ruby.network.routers3.port_buffers1.m_stall_time  3000.038886                       # Average number of cycles messages are stalled in this MB (Unspecified)
system.ruby.network.routers3.port_buffers2.m_buf_msgs     0.000061                       # Average number of messages in buffer (Unspecified)
system.ruby.network.routers3.port_buffers2.m_stall_time  3000.087577                       # Average number of cycles messages are stalled in this MB (Unspecified)
system.ruby.network.routers3.port_buffers5.m_buf_msgs     0.000061                       # Average number of messages in buffer (Unspecified)
system.ruby.network.routers3.port_buffers5.m_stall_time   999.997730                       # Average number of cycles messages are stalled in this MB (Unspecified)
system.ruby.network.routers3.power_state.pwrStateResidencyTicks::UNDEFINED  29959334000                       # Cumulative time (in ticks) in various power states (Tick)
system.ruby.network.routers3.throttle00.link_utilization     0.006143                       (Unspecified)
system.ruby.network.routers3.throttle00.msg_count.Request_Control::1         3681                       (Unspecified)
system.ruby.network.routers3.throttle00.msg_bytes.Request_Control::1        29448                       (Unspecified)
system.ruby.network.routers3.throttle00.msg_count.Unblock_Control::2         3681                       (Unspecified)
system.ruby.network.routers3.throttle00.msg_bytes.Unblock_Control::2        29448                       (Unspecified)
system.ruby.network.routers3.throttle01.link_utilization     0.027645                       (Unspecified)
system.ruby.network.routers3.throttle01.msg_count.Response_Data::2         3681                       (Unspecified)
system.ruby.network.routers3.throttle01.msg_bytes.Response_Data::2       265032                       (Unspecified)
system.ruby.network.routers4.percent_links_utilized     0.057034                       (Unspecified)
system.ruby.network.routers4.msg_count.Request_Control::0        12820                       (Unspecified)
system.ruby.network.routers4.msg_count.Request_Control::1         3681                       (Unspecified)
system.ruby.network.routers4.msg_bytes.Request_Control::0       102560                       (Unspecified)
system.ruby.network.routers4.msg_bytes.Request_Control::1        29448                       (Unspecified)
system.ruby.network.routers4.msg_count.Response_Data::2         7362                       (Unspecified)
system.ruby.network.routers4.msg_bytes.Response_Data::2       530064                       (Unspecified)
system.ruby.network.routers4.msg_count.ResponseL2hit_Data::2         8457                       (Unspecified)
system.ruby.network.routers4.msg_bytes.ResponseL2hit_Data::2       608904                       (Unspecified)
system.ruby.network.routers4.msg_count.ResponseLocal_Data::2          682                       (Unspecified)
system.ruby.network.routers4.msg_bytes.ResponseLocal_Data::2        49104                       (Unspecified)
system.ruby.network.routers4.msg_count.Response_Control::2           18                       (Unspecified)
system.ruby.network.routers4.msg_bytes.Response_Control::2          144                       (Unspecified)
system.ruby.network.routers4.msg_count.Writeback_Data::0         7433                       (Unspecified)
system.ruby.network.routers4.msg_bytes.Writeback_Data::0       535176                       (Unspecified)
system.ruby.network.routers4.msg_count.Writeback_Control::0        10846                       (Unspecified)
system.ruby.network.routers4.msg_count.Writeback_Control::2        10846                       (Unspecified)
system.ruby.network.routers4.msg_bytes.Writeback_Control::0        86768                       (Unspecified)
system.ruby.network.routers4.msg_bytes.Writeback_Control::2        86768                       (Unspecified)
system.ruby.network.routers4.msg_count.Forwarded_Control::0          682                       (Unspecified)
system.ruby.network.routers4.msg_bytes.Forwarded_Control::0         5456                       (Unspecified)
system.ruby.network.routers4.msg_count.Unblock_Control::2        19091                       (Unspecified)
system.ruby.network.routers4.msg_bytes.Unblock_Control::2       152728                       (Unspecified)
system.ruby.network.routers4.port_buffers0.m_buf_msgs     0.000011                       # Average number of messages in buffer (Unspecified)
system.ruby.network.routers4.port_buffers0.m_stall_time  1895.573647                       # Average number of cycles messages are stalled in this MB (Unspecified)
system.ruby.network.routers4.port_buffers10.m_buf_msgs     0.000061                       # Average number of messages in buffer (Unspecified)
system.ruby.network.routers4.port_buffers10.m_stall_time  2000.039186                       # Average number of cycles messages are stalled in this MB (Unspecified)
system.ruby.network.routers4.port_buffers11.m_buf_msgs     0.000061                       # Average number of messages in buffer (Unspecified)
system.ruby.network.routers4.port_buffers11.m_stall_time  2000.090331                       # Average number of cycles messages are stalled in this MB (Unspecified)
system.ruby.network.routers4.port_buffers2.m_buf_msgs     0.000071                       # Average number of messages in buffer (Unspecified)
system.ruby.network.routers4.port_buffers2.m_stall_time  2009.951548                       # Average number of cycles messages are stalled in this MB (Unspecified)
system.ruby.network.routers4.port_buffers3.m_buf_msgs     0.000000                       # Average number of messages in buffer (Unspecified)
system.ruby.network.routers4.port_buffers3.m_stall_time  1895.112722                       # Average number of cycles messages are stalled in this MB (Unspecified)
system.ruby.network.routers4.port_buffers5.m_buf_msgs     0.000326                       # Average number of messages in buffer (Unspecified)
system.ruby.network.routers4.port_buffers5.m_stall_time 10737.821642                       # Average number of cycles messages are stalled in this MB (Unspecified)
system.ruby.network.routers4.port_buffers6.m_buf_msgs     0.000524                       # Average number of messages in buffer (Unspecified)
system.ruby.network.routers4.port_buffers6.m_stall_time  2000.807620                       # Average number of cycles messages are stalled in this MB (Unspecified)
system.ruby.network.routers4.port_buffers8.m_buf_msgs     0.000321                       # Average number of messages in buffer (Unspecified)
system.ruby.network.routers4.port_buffers8.m_stall_time  2000.007468                       # Average number of cycles messages are stalled in this MB (Unspecified)
system.ruby.network.routers4.power_state.pwrStateResidencyTicks::UNDEFINED  29959334000                       # Cumulative time (in ticks) in various power states (Tick)
system.ruby.network.routers4.throttle00.link_utilization     0.019982                       (Unspecified)
system.ruby.network.routers4.throttle00.msg_count.Response_Data::2         1925                       (Unspecified)
system.ruby.network.routers4.throttle00.msg_bytes.Response_Data::2       138600                       (Unspecified)
system.ruby.network.routers4.throttle00.msg_count.ResponseL2hit_Data::2          442                       (Unspecified)
system.ruby.network.routers4.throttle00.msg_bytes.ResponseL2hit_Data::2        31824                       (Unspecified)
system.ruby.network.routers4.throttle00.msg_count.ResponseLocal_Data::2           13                       (Unspecified)
system.ruby.network.routers4.throttle00.msg_bytes.ResponseLocal_Data::2          936                       (Unspecified)
system.ruby.network.routers4.throttle00.msg_count.Response_Control::2            8                       (Unspecified)
system.ruby.network.routers4.throttle00.msg_bytes.Response_Control::2           64                       (Unspecified)
system.ruby.network.routers4.throttle00.msg_count.Writeback_Control::2         1849                       (Unspecified)
system.ruby.network.routers4.throttle00.msg_bytes.Writeback_Control::2        14792                       (Unspecified)
system.ruby.network.routers4.throttle00.msg_count.Forwarded_Control::0          669                       (Unspecified)
system.ruby.network.routers4.throttle00.msg_bytes.Forwarded_Control::0         5352                       (Unspecified)
system.ruby.network.routers4.throttle01.link_utilization     0.085933                       (Unspecified)
system.ruby.network.routers4.throttle01.msg_count.Response_Data::2         1756                       (Unspecified)
system.ruby.network.routers4.throttle01.msg_bytes.Response_Data::2       126432                       (Unspecified)
system.ruby.network.routers4.throttle01.msg_count.ResponseL2hit_Data::2         8015                       (Unspecified)
system.ruby.network.routers4.throttle01.msg_bytes.ResponseL2hit_Data::2       577080                       (Unspecified)
system.ruby.network.routers4.throttle01.msg_count.ResponseLocal_Data::2          669                       (Unspecified)
system.ruby.network.routers4.throttle01.msg_bytes.ResponseLocal_Data::2        48168                       (Unspecified)
system.ruby.network.routers4.throttle01.msg_count.Response_Control::2           10                       (Unspecified)
system.ruby.network.routers4.throttle01.msg_bytes.Response_Control::2           80                       (Unspecified)
system.ruby.network.routers4.throttle01.msg_count.Writeback_Control::2         8997                       (Unspecified)
system.ruby.network.routers4.throttle01.msg_bytes.Writeback_Control::2        71976                       (Unspecified)
system.ruby.network.routers4.throttle01.msg_count.Forwarded_Control::0           13                       (Unspecified)
system.ruby.network.routers4.throttle01.msg_bytes.Forwarded_Control::0          104                       (Unspecified)
system.ruby.network.routers4.throttle02.link_utilization     0.116076                       (Unspecified)
system.ruby.network.routers4.throttle02.msg_count.Request_Control::0        12820                       (Unspecified)
system.ruby.network.routers4.throttle02.msg_bytes.Request_Control::0       102560                       (Unspecified)
system.ruby.network.routers4.throttle02.msg_count.Response_Data::2         3681                       (Unspecified)
system.ruby.network.routers4.throttle02.msg_bytes.Response_Data::2       265032                       (Unspecified)
system.ruby.network.routers4.throttle02.msg_count.Writeback_Data::0         7433                       (Unspecified)
system.ruby.network.routers4.throttle02.msg_bytes.Writeback_Data::0       535176                       (Unspecified)
system.ruby.network.routers4.throttle02.msg_count.Writeback_Control::0        10846                       (Unspecified)
system.ruby.network.routers4.throttle02.msg_bytes.Writeback_Control::0        86768                       (Unspecified)
system.ruby.network.routers4.throttle02.msg_count.Unblock_Control::2        15410                       (Unspecified)
system.ruby.network.routers4.throttle02.msg_bytes.Unblock_Control::2       123280                       (Unspecified)
system.ruby.network.routers4.throttle03.link_utilization     0.006143                       (Unspecified)
system.ruby.network.routers4.throttle03.msg_count.Request_Control::1         3681                       (Unspecified)
system.ruby.network.routers4.throttle03.msg_bytes.Request_Control::1        29448                       (Unspecified)
system.ruby.network.routers4.throttle03.msg_count.Unblock_Control::2         3681                       (Unspecified)
system.ruby.network.routers4.throttle03.msg_bytes.Unblock_Control::2        29448                       (Unspecified)
system.ruby.power_state.pwrStateResidencyTicks::UNDEFINED  29959334000                       # Cumulative time (in ticks) in various power states (Tick)
system.sys_port_proxy.power_state.pwrStateResidencyTicks::UNDEFINED  29959334000                       # Cumulative time (in ticks) in various power states (Tick)
system.voltage_domain.voltage                       1                       # Voltage in Volts (Volt)
system.workload.inst.arm                            0                       # number of arm instructions executed (Count)
system.workload.inst.quiesce                        0                       # number of quiesce instructions executed (Count)

---------- End Simulation Statistics   ----------
